ca_results/winter/N-1/fnsl/N1_lines_with_realweather_T.csv
Contingency,Converged,FromBus#,ToBus#,CKT,Pij(MW),Qij(MVAr),Sij(MVA),Pji(MW),Qji(MVAr),Sji(MVA),RateA,Ploss(MW),Qloss(MVAr),Loading_%,Violation,Current(A),Tcond(degC),lat_mid,lon_mid,bearing_deg,length_km,weather_site_id,weather_site_distance_km,weather_site_elevation_m,air_temperature,ghi,surface_pressure,surface_pressure_pa,wind_direction,wind_speed,wind_conductor_angle_deg,Tcond_realweather(degC),Ampacity_at_75C(A),Loading_realweather_%
LT_101-102_A1,True,101.0,103.0,A2,12.837118,3.762852,13.377243,-12.714654,-3.293035,13.134173,175.0,0.122464,0.469817,7.64,False,58.2285967046048,8.176355361938477,33.4664680426,-114.25302055200001,281.65513948457516,78.99713734402492,272693,27.889914770408065,91.0,11.399999618530273,39.0,1008.0,100800.0,46.0,0.8999999761581421,124.34486051542484,12.032124329623912,1207.2596147715283,4.8232042215397435
LT_101-102_A1,True,101.0,105.0,A3,-1.079073,-4.357721,4.489335,1.081936,4.368784,4.500762,175.0,0.002863,0.011063,2.57,False,19.541222147707643,8.028497695922852,33.527831551000006,-113.917332536,332.7077807708397,32.97810897483768,272693,55.37740896846629,91.0,11.399999618530273,39.0,1008.0,100800.0,46.0,0.8999999761581421,73.29221922916031,11.872841645043081,1229.6505437140033,1.589168747787958
LT_101-102_A1,True,102.0,104.0,A4,8.454018,8.871822,12.254781,-8.389703,-8.624307,12.031865,175.0,0.064315,0.247516,7.0,False,53.25826201037293,8.149118423461914,33.58499098295,-113.82567627200001,0.053868993317280456,50.552094829892674,273508,61.87228040205209,89.0,11.0,39.0,1005.0,100500.0,46.0,0.8999999761581421,45.94613100668272,11.63136100769043,1188.8033143376833,4.4799893614062345
LT_101-102_A1,True,102.0,106.0,A5,8.21756,-9.922175,12.883239,-8.150676,10.17901,13.04016,175.0,0.066884,0.256835,7.36,False,55.98948836411316,8.16370964050293,33.54785744425,-114.003928834,322.14286051780334,53.63905217588826,272693,47.56965144659038,91.0,11.399999618530273,39.0,1008.0,100800.0,46.0,0.8999999761581421,83.85713948219666,11.98206405732708,1243.6007387549291,4.502207711790911
LT_101-102_A1,True,103.0,109.0,A6,-45.813797,6.907372,46.331585,46.574332,-3.987899,46.744751,175.0,0.760535,2.919472,26.48,False,206.19189036804784,10.089750289916992,33.72863454765,-114.48934004450001,38.03489934721705,54.229833774295344,273508,0.9566740748851706,89.0,11.0,39.0,1005.0,100500.0,46.0,0.8999999761581421,7.965100652782951,14.860647201538086,982.1313162479078,20.99433008162029
LT_101-102_A1,True,103.0,124.0,A7,-21.874813,-14.990062,26.518097,21.890727,15.658455,26.914516,400.0,0.015914,0.668393,6.63,False,118.01488227508858,8.69288444519043,33.53989894155,-114.6634437025,62.122581397062504,1.4584863725043906,270245,1.1363138040058882,75.0,11.0,34.0,1008.0,100800.0,46.0,1.2000000476837158,163.8774186029375,12.292352676391602,1101.3763374781431,10.715218609590893
LT_101-102_A1,True,104.0,109.0,A8,-24.664974,5.020924,25.17083,24.860385,-4.268229,25.224126,175.0,0.195411,0.752695,14.38,False,111.3156342193989,8.617010116577148,33.8663698982,-114.066850007,285.22792751338363,46.175372092212655,277498,39.42199663193729,151.0,10.899999618530273,56.0,995.0,99500.0,59.0,0.6000000238418579,133.77207248661637,12.441894724444865,1100.9855773740946,10.110544271151328
LT_101-102_A1,True,105.0,110.0,A9,-32.796558,-8.490616,33.877792,33.076053,9.559986,34.429909,175.0,0.279495,1.06937,19.36,False,146.9801722366313,9.068365097045898,33.786176454599996,-114.14599382399999,316.1102545640957,39.125724159032,273508,31.981051974502726,89.0,11.0,39.0,1005.0,100500.0,46.0,0.8999999761581421,89.88974543590427,12.368936538696289,1258.1169733884544,11.68255220663412
LT_101-102_A1,True,106.0,110.0,10,-52.598457,-112.601837,124.281021,53.009366,114.392226,126.077652,175.0,0.410909,1.790389,71.02,False,534.0531080405324,21.69074058532715,33.82541475805,-114.23744436449999,332.2035219612036,21.973081610449327,273508,25.547898565618038,89.0,11.0,39.0,1005.0,100500.0,46.0,0.8999999761581421,73.79647803879641,24.046152114868164,1233.1633021421167,43.307573872238464
LT_101-102_A1,True,107.0,108.0,11,77.78022,0.327776,77.780907,-76.737352,3.648159,76.824021,175.0,1.042868,3.975936,44.45,False,337.7335093430714,13.558568954467772,34.57823637615,-113.7314761945,191.80450991680215,27.040331428742554,280694,48.23352083597048,170.0,11.399999618530273,52.0,996.0,99600.0,71.0,0.8999999761581421,59.19549008319785,17.29300385463648,1208.6474477943143,27.943095396379498
LT_101-102_A1,True,107.0,203.0,B1,148.62439,-1.541891,148.632401,-138.630923,39.850179,144.244825,175.0,9.993466,38.308289,84.93,False,645.3787224648412,27.777223587036133,35.0258321095,-113.838621218,341.18656177700467,77.23111035384919,273483,67.12170109617558,151.0,10.100000381469727,43.0,991.0,99100.0,71.0,1.2000000476837158,89.81343822299533,25.948039029670326,1340.5309799813035,48.143514182256524
LT_101-102_A1,True,108.0,109.0,1,0.06588,0.571908,0.575689,-0.062646,-0.5595,0.562996,175.0,0.003234,0.012408,0.33,False,2.532182322621022,8.010015487670898,34.18982353435,-114.034962272,220.15903880363092,78.21129921512714,280694,14.468759995973627,170.0,11.399999618530273,52.0,996.0,99600.0,71.0,0.8999999761581421,30.84096119636908,12.132244874217577,1125.1468742172656,0.22505349129486701
LT_101-102_A1,True,108.0,110.0,2,0.288368,-18.295927,18.298201,-0.162661,18.77829,18.778994,175.0,0.125707,0.482363,10.46,False,80.48509022747751,8.327131271362305,34.1860019329,-114.0273040675,218.96149073017423,77.97500234740549,280694,15.230903469254052,170.0,11.399999618530273,52.0,996.0,99600.0,71.0,0.8999999761581421,32.03850926982577,12.471744539067004,1130.850761954863,7.117215899323948
LT_101-102_A1,True,109.0,111.0,14,-60.600082,1.201232,60.611988,60.682081,2.242721,60.723511,400.0,0.081999,3.443952,15.15,False,267.8855115985724,11.512880325317385,33.91241117325,-114.304699342,159.67425780531744,1.9031858797390406,273502,18.441799885429408,97.0,10.699999809265137,44.0,998.0,99800.0,59.0,0.5,79.32574219468256,15.374284366518623,1111.4303798546346,24.102770308798785
LT_101-102_A1,True,109.0,112.0,15,-88.941833,0.940617,88.946808,89.118418,6.475913,89.353398,400.0,0.176584,7.41653,22.24,False,393.11631167979505,15.502119064331056,33.9156511436,-114.31084169450001,203.947168667828,1.1643839227143522,273502,17.80785802409589,97.0,10.699999809265137,44.0,998.0,99800.0,59.0,0.5,35.05283133217199,21.37814522640656,1038.1181103063589,37.86816815706862
LT_101-102_A1,True,110.0,111.0,16,-71.852715,40.156128,82.312378,71.99402,-34.221319,79.713471,400.0,0.141305,5.934809,20.58,False,351.66086595310975,14.020624160766602,33.9085895718,-114.2970411375,218.83185834528146,1.199999298332487,273502,19.225322946508676,97.0,10.699999809265137,44.0,998.0,99800.0,59.0,0.5,20.16814165471854,20.730016716368482,972.5705458947739,36.15787743495548
LT_101-102_A1,True,110.0,112.0,17,-101.173576,40.154572,108.850739,101.420686,-29.775961,105.701293,400.0,0.24711,10.378611,27.21,False,465.0399619893856,18.441762924194336,33.91182954215,-114.30318349000001,263.52385649728956,1.8981503306103409,273502,18.59008452775047,97.0,10.699999809265137,44.0,998.0,99800.0,59.0,0.5,155.47614350271044,26.595123303684886,994.5498949120797,46.758836773141084
LT_101-102_A1,True,111.0,113.0,18,-244.676285,39.573662,247.855927,248.799774,-6.585747,248.886921,500.0,4.123489,32.987915,49.57,False,656.0590008731355,28.41437339782715,34.1293332045,-114.287887337,2.7798809616962217,50.08528154115857,277498,4.623035951639475,151.0,10.899999618530273,56.0,995.0,99500.0,59.0,0.6000000238418579,56.22011903830378,34.49450630137653,1119.8532480993504,58.58437272799978
LT_101-102_A1,True,111.0,114.0,19,112.000191,-7.595068,112.257423,-111.302072,13.459268,112.112903,500.0,0.698119,5.8642,22.45,False,297.13831605880034,12.313451766967772,33.84073608285,-114.56051449450001,253.6860893720658,49.96150226236739,271871,2.0077707949584878,269.0,10.199999809265137,55.0,994.0,99400.0,59.0,0.699999988079071,165.3139106279342,17.55424824345937,993.5335673437644,29.907224660079347
LT_101-102_A1,True,112.0,113.0,20,-196.968094,32.781647,199.677414,199.634623,-11.449411,199.962676,500.0,2.666529,21.332235,39.94,False,527.0965192665491,21.34444236755371,34.132573174849995,-114.29402968950001,4.126021058856338,49.43428786192113,277498,4.172118022807155,151.0,10.899999618530273,56.0,995.0,99500.0,59.0,0.6000000238418579,54.87397894114366,26.69336531297813,1117.8071584882323,47.15451276760616
LT_101-102_A1,True,112.0,123.0,21,6.428977,-9.481603,11.455677,-6.42348,9.526037,11.489407,500.0,0.005497,0.044434,2.29,False,30.240012385886885,8.05476188659668,34.14643314265,-114.691095425,307.21393123188295,87.0443510046333,269416,1.9810322366643094,324.0,8.899999618530273,53.0,976.0,97600.0,346.0,1.2999999523162842,38.78606876811705,9.535988427214761,1267.499283488054,2.385801142440795
LT_101-102_A1,True,113.0,123.0,22,117.265678,-16.766363,118.458221,-115.580709,30.092937,119.43402,500.0,1.684969,13.326573,23.69,False,313.00634225205573,12.782316207885742,34.3681403032,-114.6717226875,272.6456124243665,72.95310639099516,270224,1.0590202066430323,388.0,8.899999618530273,43.0,971.0,97100.0,71.0,1.2000000476837158,158.3543875756335,14.710352906837215,1149.3614206940665,27.233064953845428
LT_101-102_A1,True,113.0,215.0,B2,318.939301,-19.378752,319.527496,-307.651507,104.037199,324.76636,500.0,11.287793,84.658447,63.91,False,844.2987909798036,41.058149337768555,34.7514356122,-114.425215633,342.78515118710203,92.50852375989442,273483,7.038480495579008,151.0,10.100000381469727,43.0,991.0,99100.0,71.0,1.2000000476837158,88.21484881289797,36.669888072679896,1336.7947023136414,63.15844830313462
LT_101-102_A1,True,114.0,116.0,23,24.645226,-22.990318,33.703739,-24.590349,23.637862,34.109145,500.0,0.054877,0.647543,6.74,False,89.4930392559041,8.403005599975586,33.71905866655,-115.07048464,254.58110202453383,48.11325865555416,262163,1.5254500733407452,387.0,9.100000381469727,50.0,990.0,99000.0,7.0,2.0,112.41889797546617,9.747408102917689,1487.8570198426282,6.014895118441545
LT_101-102_A1,True,115.0,116.0,24,-99.726936,41.463306,108.00309,99.982261,-39.293051,107.426236,500.0,0.255324,2.170255,21.6,False,281.92719143527324,11.887388229370115,33.5836074796,-115.325283222,2.6007230139453554,17.236067799848346,256615,1.991195585655014,994.0,4.800000190734863,47.0,910.0,91000.0,14.0,1.600000023841858,11.399276986054645,10.006702609780405,1151.5740507594417,24.48189860212181
LT_101-102_A1,True,115.0,121.0,1,-0.904235,-8.161449,8.211389,0.905038,8.168005,8.217992,500.0,0.000803,0.006555,1.64,False,21.434700049345786,8.032388687133789,33.5166525943,-115.700143213,272.1450146356158,68.75953430638423,249642,1.4759306061184725,343.0,9.899999618530273,41.0,989.0,98900.0,14.0,1.399999976158142,101.85498536438422,10.30254154269278,1369.8872302838884,1.5647054425716318
LT_101-102_A1,True,115.0,121.0,2,-0.904235,-8.161449,8.211389,0.905038,8.168005,8.217992,500.0,0.000803,0.006555,1.64,False,21.434700049345786,8.032388687133789,33.5166525943,-115.700143213,272.1450146356158,68.75953430638423,249642,1.4759306061184725,343.0,9.899999618530273,41.0,989.0,98900.0,14.0,1.399999976158142,101.85498536438422,10.30254154269278,1369.8872302838884,1.5647054425716318
LT_101-102_A1,True,115.0,124.0,26,21.936375,5.996199,22.741129,-21.89073,-5.657122,22.609889,500.0,0.045645,0.339077,4.55,False,59.36258517267649,8.182191848754883,33.524574389449995,-114.9929983545,86.0634407392426,62.52120431249092,263770,1.2987773397332119,181.0,9.0,49.0,991.0,99100.0,7.0,2.0999999046325684,100.9365592607574,9.475759506225586,1525.7012215159837,3.890839460277288
LT_101-102_A1,True,116.0,117.0,27,28.815451,-18.836819,34.426094,-28.77947,19.148651,34.567741,500.0,0.035981,0.311832,6.89,False,90.36927921951964,8.410787582397461,33.6181318947,-115.48093336950001,252.22842579087137,31.107139968025567,253477,1.9140400448987045,626.0,7.900000095367432,42.0,957.0,95700.0,14.0,1.399999976158142,121.77157420912863,8.63559827775589,1350.8931590506336,6.689594851677865
LT_101-102_A1,True,116.0,119.0,28,-86.875877,35.781921,93.956184,87.170913,-33.519982,93.393561,500.0,0.295036,2.26194,18.79,False,246.6371185269105,10.981760025024414,33.76505507735,-115.3450942825,349.13986505303745,23.556813083232125,256610,0.7090697519730219,173.0,9.800000190734863,33.0,999.0,99900.0,347.0,1.5,177.86013494696255,14.44879893887446,1029.0886267547437,23.966557603953582
LT_101-102_A1,True,117.0,118.0,29,23.517437,5.372019,24.123194,-23.50444,-5.281042,24.090415,500.0,0.012997,0.090977,4.82,False,63.088400239390786,8.204565048217773,33.55988168545,-115.720382362,257.0094374622221,15.136559396239369,248877,2.067412682375808,673.0,6.400000095367432,43.0,926.0,92600.0,14.0,1.399999976158142,116.99056253777792,6.987757205733033,1362.3515489784188,4.630845855219868
LT_101-102_A1,True,117.0,122.0,30,5.26203,-19.472418,20.17087,-5.244701,19.602384,20.291879,500.0,0.017329,0.129967,4.03,False,52.75204932384659,8.146200180053711,33.19704830715,-115.9825780325,217.2849118719248,105.44450604735857,244330,1.4502294277503673,-1.0,12.800000190734863,41.0,1020.0,102000.0,269.0,1.100000023841858,51.715088128075195,13.375029944911148,1237.1064220601147,4.264148046050901
LT_101-102_A1,True,118.0,121.0,1,22.379229,-23.66674,32.572144,-22.348271,23.935036,32.746468,500.0,0.030957,0.268296,6.51,False,85.31520853751053,8.367013931274414,33.53582614645,-115.9353669965,265.66484574225194,25.175829908557873,245078,0.7639325348498951,-54.0,13.0,33.0,1018.0,101800.0,14.0,1.2000000476837158,108.33515425774806,13.618844985961914,1291.0435236495446,6.608236436238803
LT_101-102_A1,True,118.0,121.0,2,22.379229,-23.66674,32.572144,-22.348271,23.935036,32.746468,500.0,0.030957,0.268296,6.51,False,85.31520853751053,8.367013931274414,33.53582614645,-115.9353669965,265.66484574225194,25.175829908557873,245078,0.7639325348498951,-54.0,13.0,33.0,1018.0,101800.0,14.0,1.2000000476837158,108.33515425774806,13.618844985961914,1291.0435236495446,6.608236436238803
LT_101-102_A1,True,119.0,120.0,1,-84.010414,10.722432,84.691917,84.412936,-7.502256,84.745664,500.0,0.402522,3.220176,16.94,False,223.760286285197,10.45842170715332,34.056828753299996,-115.315800239,13.212646757626715,42.89429659955225,257390,1.5908349052243251,342.0,8.800000190734863,40.0,982.0,98200.0,346.0,1.600000023841858,152.78735324237329,11.4199991205478,1269.380798796245,17.627514651032147
LT_101-102_A1,True,119.0,120.0,2,-84.010414,10.722432,84.691917,84.412936,-7.502256,84.745664,500.0,0.402522,3.220176,16.94,False,223.760286285197,10.45842170715332,34.056828753299996,-115.315800239,13.212646757626715,42.89429659955225,257390,1.5908349052243251,342.0,8.800000190734863,40.0,982.0,98200.0,346.0,1.600000023841858,152.78735324237329,11.4199991205478,1269.380798796245,17.627514651032147
LT_101-102_A1,True,120.0,123.0,1,-113.000763,9.179978,113.373032,113.430226,-6.03058,113.590423,500.0,0.429463,3.149399,22.67,False,299.8472269845984,12.392244338989258,34.31328943195,-115.1656291745,49.28215064958658,23.450450783620735,259756,2.2441267823391438,707.0,7.699999809265137,46.0,961.0,96100.0,2.0,1.5,132.71784935041342,11.63336334538144,1349.789656048974,22.21436693049596
LT_101-102_A1,True,120.0,123.0,2,-113.000763,9.179978,113.373032,113.430226,-6.03058,113.590423,500.0,0.429463,3.149399,22.67,False,299.8472269845984,12.392244338989258,34.31328943195,-115.1656291745,49.28215064958658,23.450450783620735,259756,2.2441267823391438,707.0,7.699999809265137,46.0,961.0,96100.0,2.0,1.5,132.71784935041342,11.63336334538144,1349.789656048974,22.21436693049596
LT_101-102_A1,True,121.0,122.0,34,-5.236516,-14.157236,15.094648,5.244727,14.219275,15.15569,500.0,0.008211,0.062039,3.02,False,39.32935984756704,8.08588981628418,33.172992768149996,-116.197562667,196.75137436176485,82.21478769358605,240603,1.5911941943704755,192.0,12.100000381469727,39.0,1005.0,100500.0,269.0,1.0,72.24862563823515,12.601403235585167,1246.662522252028,3.1547719728127133
LT_101-102_A1,True,121.0,325.0,1,444.122894,49.846725,446.911438,-418.168055,159.954895,447.716529,500.0,25.95484,209.80162,89.38,False,1164.435286274688,67.9030704498291,33.88950639194999,-116.599877614,309.8193181099749,126.63031816801767,233264,1.7623985492877712,289.0,13.399999618530273,32.0,998.0,99800.0,218.0,0.6000000238418579,88.18068189002508,75.73557596720275,1139.6834608650836,102.17181579443263
LT_101-102_A1,True,123.0,217.0,B3,163.143768,-49.772949,170.567398,-159.994948,73.074221,175.892652,500.0,3.14882,23.301271,34.11,False,450.4806102030541,17.809476852416992,34.73487458595,-114.99497599799999,9.71178695733397,79.62675421689616,263740,1.4324488671760864,638.0,6.800000190734863,45.0,945.0,94500.0,2.0,1.399999976158142,172.28821304266603,20.180249203678613,1079.2713780737913,41.739327045533315
LT_101-102_A1,True,201.0,202.0,B1,14.080993,-30.937546,33.991264,-14.071299,30.982784,34.028434,175.0,0.009694,0.045238,19.42,False,148.7125208328971,9.093656539916992,36.2728130805,-113.73374720749999,330.06786134221716,4.4011989362247,264540,155.6214060520281,765.0,6.099999904632568,35.0,930.0,93000.0,334.0,1.100000023841858,3.9321386577828434,8.494396306020462,1000.451025176622,14.864547797993714
LT_101-102_A1,True,201.0,203.0,B2,-56.62326,28.342878,63.320713,59.127739,-18.734788,62.024848,175.0,2.504479,9.60809,36.18,False,277.02949943745534,11.754121780395508,35.80503293055,-113.848714785,192.97069564697503,102.80891251473568,269393,112.52290251671089,362.0,8.100000381469727,43.0,964.0,96400.0,354.0,1.2999999523162842,161.02930435302497,12.809383957112004,1154.3678821911674,23.99837207109495
LT_101-102_A1,True,201.0,205.0,B3,23.720778,-9.744989,25.644493,-23.567226,10.338256,25.735067,175.0,0.153551,0.593266,14.65,False,112.19521579166882,8.626737594604492,36.1674465537,-113.852268562,230.19480725713623,30.595990672773983,264540,139.93990431001146,765.0,6.099999904632568,35.0,930.0,93000.0,334.0,1.100000023841858,103.80519274286377,7.022496128442981,1311.4431355508952,8.555095737684365
LT_101-102_A1,True,202.0,204.0,B4,6.983139,12.012634,13.894876,-6.89926,-11.689828,13.573941,175.0,0.083879,0.322806,7.94,False,60.72658653462449,8.190946578979492,36.24012743795,-113.98393331349999,255.58339309310898,44.09339369915581,260525,137.5558724758757,1528.0,1.7999999523162842,35.0,849.0,84900.0,334.0,1.0,78.41660690689102,2.3950686932753342,1303.6106948412735,4.658337552379355
LT_101-102_A1,True,202.0,206.0,B5,19.374496,-11.739309,22.65353,-19.121914,12.709227,22.960227,175.0,0.252583,0.969917,12.94,False,99.00567301642072,8.49055290222168,36.0386798677,-113.8181726305,193.11788205041233,57.370194606690454,264540,132.24501532331928,765.0,6.099999904632568,35.0,930.0,93000.0,334.0,1.100000023841858,140.88211794958767,7.011331272481584,1236.9316652391358,8.004134407641667
LT_101-102_A1,True,203.0,209.0,B6,85.045334,-21.830406,87.802475,-82.312295,32.321749,88.430817,175.0,2.733039,10.491343,50.17,False,394.3318658502084,15.54783821105957,35.5797547942,-114.0633830655,342.5346845645803,52.55291889027809,269393,81.32743088984492,362.0,8.100000381469727,43.0,964.0,96400.0,354.0,1.2999999523162842,11.465315435419711,18.068280204312032,1092.3827721729087,36.09832339865858
LT_101-102_A1,True,203.0,224.0,B7,-94.082985,-8.454167,94.462059,94.288638,17.091581,95.825202,400.0,0.205653,8.637414,23.62,False,424.24088816998005,16.71708106994629,35.355419888750006,-113.968093071,80.9533122476027,1.4399883635815744,270208,72.2396121632983,185.0,9.800000190734863,38.0,992.0,99200.0,69.0,1.2999999523162842,168.0466877523973,20.854584303660886,1090.5666856593286,38.90095798346296
LT_101-102_A1,True,204.0,209.0,B8,-29.500866,7.361403,30.405449,29.791279,-6.242774,30.43834,175.0,0.290413,1.118629,17.37,False,135.77837174897132,8.913698196411133,35.9976998197,-114.18635032750001,171.49301131316565,43.3047846821941,264540,106.2828182492113,765.0,6.099999904632568,35.0,930.0,93000.0,334.0,1.100000023841858,162.50698868683435,7.767750263866219,1113.552249743203,12.193264553170565
LT_101-102_A1,True,205.0,210.0,B9,-11.357224,-15.115918,18.907076,11.438619,15.427342,19.205335,175.0,0.081395,0.311424,10.8,False,82.49904931049097,8.343667984008789,35.93352645830001,-114.072961317,206.60422896348982,36.22324095579948,264540,107.77888525794216,765.0,6.099999904632568,35.0,930.0,93000.0,334.0,1.100000023841858,127.39577103651018,6.81594629315714,1277.4135057269666,6.4582884822046225
LT_101-102_A1,True,206.0,210.0,10,-47.77562,-115.160576,124.677452,48.117423,116.649862,126.184297,175.0,0.341803,1.489286,71.24,False,539.46312041977,21.96213722229004,35.7876102904,-114.02661411900002,270.1901520712983,24.58276518571172,265345,100.34878020381882,697.0,6.300000190734863,36.0,935.0,93500.0,354.0,1.2999999523162842,83.80984792870169,17.646742239654486,1372.693477478342,39.29960543054169
LT_101-102_A1,True,207.0,208.0,11,-17.486696,23.683483,29.439631,17.646894,-23.072728,29.04761,175.0,0.160198,0.610755,16.82,False,129.64897078310472,8.833932876586914,35.9931404214,-113.2002752525,238.0869400541825,24.9097490232365,269393,168.936732686421,362.0,8.100000381469727,43.0,964.0,96400.0,354.0,1.2999999523162842,115.91305994581751,9.199487112218776,1336.7849086168276,9.698566309912387
LT_101-102_A1,True,208.0,209.0,1,-58.892105,17.730757,61.503334,60.779483,-10.488494,61.677824,175.0,1.887378,7.242262,35.14,False,274.50325573641067,11.687002182006836,35.869460766900005,-113.7342668105,259.4509328750614,76.42303064956775,269393,124.63888746734791,362.0,8.100000381469727,43.0,964.0,96400.0,354.0,1.2999999523162842,94.54906712493857,11.33294352975281,1367.672096829773,20.07083835172932
LT_101-102_A1,True,208.0,210.0,2,-42.868595,-10.360314,44.102749,43.802329,13.943246,45.968012,175.0,0.933734,3.582932,25.2,False,196.84051904284945,9.905900955200195,35.86081880785,-113.740291285,258.21609606641846,77.87575473426104,269393,123.57789086146938,362.0,8.100000381469727,43.0,964.0,96400.0,354.0,1.2999999523162842,95.78390393358154,9.975541111849452,1365.245665546744,14.41795597747019
LT_101-102_A1,True,209.0,211.0,14,-51.27375,-10.059978,52.25132,51.33601,12.674883,52.877581,400.0,0.06226,2.614905,13.06,False,233.4256311928581,10.673398971557615,35.803296077,-114.15919206150001,255.04753795152322,1.5606506659808639,264540,92.36331760486274,765.0,6.099999904632568,35.0,930.0,93000.0,334.0,1.100000023841858,78.95246204847678,8.78375215635333,1315.1741967599366,17.74864742388693
LT_101-102_A1,True,209.0,212.0,15,-43.066097,-14.039953,45.296898,43.112887,16.005114,45.987876,400.0,0.04679,1.965161,11.32,False,202.3577013313446,10.013875961303713,35.7982763547,-114.1484987875,164.51081322878485,1.5763836313303292,264540,92.71146744646519,765.0,6.099999904632568,35.0,930.0,93000.0,334.0,1.100000023841858,169.48918677121515,9.483416463267531,1058.0782607534306,19.125022111998675
LT_101-102_A1,True,210.0,211.0,16,-103.806648,38.444252,110.696793,104.064756,-27.603732,107.663547,400.0,0.258108,10.84052,27.67,False,475.2757995380764,18.897008895874023,35.79465411795,-114.165216536,344.5036493141338,1.5763988480578353,264540,91.3311064017178,765.0,6.099999904632568,35.0,930.0,93000.0,334.0,1.100000023841858,169.49635068586622,21.61682367931553,1058.018037182181,44.921332419235334
LT_101-102_A1,True,210.0,212.0,17,-95.47097,33.905773,101.312927,95.687173,-24.825275,98.855092,400.0,0.216202,9.080498,25.33,False,434.9862455678166,17.156763076782227,35.78963439565,-114.154523262,75.03993290589335,1.560647321312595,264540,91.68344274909107,765.0,6.099999904632568,35.0,930.0,93000.0,334.0,1.100000023841858,78.96006709410665,14.404326728253181,1315.1850146832476,33.07414855791828
LT_101-102_A1,True,211.0,213.0,18,-54.601254,-1.347046,54.617863,54.801068,2.945563,54.880173,500.0,0.199815,1.598517,10.92,False,144.66482275850842,9.03529167175293,35.9737901158,-114.3952240275,313.214519946109,56.101241393014526,260525,90.78880369689668,1528.0,1.7999999523162842,35.0,849.0,84900.0,334.0,1.0,20.78548005389098,3.7007167342976572,1131.235527039358,12.78821424015224
LT_101-102_A1,True,211.0,214.0,19,-100.7995,16.276005,102.10508,101.387891,-11.333514,102.019376,500.0,0.588392,4.942491,20.42,False,270.4429007217533,11.579999923706056,35.68454797925,-114.33006002350001,228.5567635847391,39.217093492331436,264540,72.32209336765068,765.0,6.099999904632568,35.0,930.0,93000.0,334.0,1.100000023841858,105.44323641526091,9.600647450862198,1309.3734475971585,20.654374901067772
LT_101-102_A1,True,212.0,213.0,20,-68.775955,6.948985,69.126114,69.098633,-4.367564,69.236527,500.0,0.322678,2.581421,13.83,False,182.50291202927323,9.640340805053713,35.968770393499994,-114.3845307535,312.728141959339,58.27352990394753,260525,91.10269265356733,1528.0,1.7999999523162842,35.0,849.0,84900.0,334.0,1.0,21.271858040661016,4.4638438706747365,1134.4964675085935,16.086688434566753
LT_101-102_A1,True,212.0,223.0,21,-70.024078,1.871342,70.04908,70.691169,3.520972,70.7788,500.0,0.66709,5.392314,14.01,False,184.93967540214288,9.684114456176758,35.80789751575,-114.84130532949999,272.07825544446206,125.42411855974576,257353,50.9569086479279,899.0,5.800000190734863,27.0,898.0,89800.0,334.0,0.8999999761581421,61.92174455553794,7.807022665363547,1239.2595409196622,14.923401377640232
LT_101-102_A1,True,213.0,223.0,22,-40.251522,-3.574707,40.409943,40.451618,5.157284,40.779051,500.0,0.200096,1.582577,8.08,False,106.7766274520342,8.569345474243164,35.985222525750004,-115.07967101,246.747631827701,89.64501743467814,253425,49.52932837718548,1082.0,7.199999809265137,21.0,905.0,90500.0,82.0,0.699999988079071,15.252368172298986,8.466589928668327,1007.0910517813055,10.602480010439141
LT_101-102_A1,True,214.0,216.0,23,-196.815247,0.032559,196.815247,198.98397,25.55838,200.618671,500.0,2.168723,25.590939,39.36,False,522.6995045479036,21.127519607543945,35.4145503497,-114.6116655375,212.44947011073543,40.306364052426176,265345,34.124564386584666,697.0,6.300000190734863,36.0,935.0,93500.0,354.0,1.2999999523162842,141.55052988926457,18.684222402416708,1278.7406538164457,40.87611533956388
LT_101-102_A1,True,215.0,216.0,24,220.934296,-29.486042,222.893219,-219.85833,38.631747,223.22656,500.0,1.075965,9.145705,44.58,False,582.7894399563351,24.229612350463867,35.205040229,-114.65326848149999,311.7614206360051,18.865123622721175,266961,16.946118844596615,770.0,5.599999904632568,42.0,923.0,92300.0,354.0,1.2999999523162842,42.238579363994916,20.63213263144553,1295.684090564996,44.979285012460394
LT_101-102_A1,True,215.0,221.0,1,-60.105133,-36.503654,70.321716,60.405952,38.960344,71.880369,500.0,0.300819,2.45669,14.06,False,183.86720631644,9.665632247924805,35.23245624485,-114.8868583705,288.44475129996886,59.50731844131268,265345,2.742624339204692,697.0,6.300000190734863,36.0,935.0,93500.0,354.0,1.2999999523162842,65.55524870003114,8.019372557248062,1346.9152934976514,13.650985121638653
LT_101-102_A1,True,215.0,221.0,2,-60.105133,-36.503654,70.321716,60.405952,38.960344,71.880369,500.0,0.300819,2.45669,14.06,False,183.86720631644,9.665632247924805,35.23245624485,-114.8868583705,288.44475129996886,59.50731844131268,265345,2.742624339204692,697.0,6.300000190734863,36.0,935.0,93500.0,354.0,1.2999999523162842,65.55524870003114,8.019372557248062,1346.9152934976514,13.650985121638653
LT_101-102_A1,True,215.0,224.0,26,94.997238,12.465271,95.811577,-94.288638,-7.201382,94.563244,500.0,0.7086,5.263889,19.16,False,250.51446406345488,11.075143814086914,35.252514202,-114.2680134135,67.35719566640654,60.481416120695556,270208,43.88396367981343,185.0,9.800000190734863,38.0,992.0,99200.0,69.0,1.2999999523162842,1.6428043335934603,15.032475848811373,994.4616104475243,25.19096377694451
LT_101-102_A1,True,216.0,217.0,27,-213.633011,-24.559446,215.04007,215.130688,37.539316,218.381348,500.0,1.497677,12.97987,43.01,False,561.5862939351938,23.100252151489254,35.17461923495,-114.825963111,221.90828713981625,25.93674508970559,266153,3.0592867147694096,754.0,5.800000190734863,39.0,926.0,92600.0,354.0,1.2999999523162842,132.09171286018375,19.34891566171973,1313.7325784864074,42.74738277269603
LT_101-102_A1,True,216.0,219.0,28,247.318008,11.38097,247.579712,-245.325851,3.892239,245.356725,500.0,1.992158,15.273209,49.52,False,646.5649537577933,27.848234176635746,35.34035338545,-114.85497218500001,307.96728213387195,28.554000463913425,264540,12.513730050764144,765.0,6.099999904632568,35.0,930.0,93000.0,334.0,1.100000023841858,26.032717866128053,28.465532406969032,1171.4417014583569,55.19395057840852
LT_101-102_A1,True,217.0,218.0,29,-48.201511,-71.872734,86.539444,48.354642,72.94465,87.516246,500.0,0.153131,1.071916,17.31,False,222.68933386471193,10.435075759887695,35.10132792,-114.999522918,282.00426444829014,14.57343843515518,263731,2.135943719328595,927.0,4.400000095367432,45.0,905.0,90500.0,354.0,1.399999976158142,71.99573555170986,6.763304232633345,1385.776077140074,16.069647725792176
LT_101-102_A1,True,217.0,222.0,30,-6.934224,-19.207222,20.420597,6.952414,19.343643,20.555111,500.0,0.018189,0.136421,4.08,False,52.54770464032257,8.145227432250977,35.70936497125,-115.1056865365,346.55568240887214,142.19993312364048,257353,26.265606048579304,899.0,5.800000190734863,27.0,898.0,89800.0,334.0,0.8999999761581421,167.44431759112786,6.504717063353382,1036.642115125143,5.0690304661198375
LT_101-102_A1,True,218.0,221.0,1,-21.077606,23.247042,31.379778,21.112011,-22.948869,31.182809,500.0,0.034405,0.298173,6.28,False,79.8390549376447,8.322267532348633,35.2156142699,-115.13791234499999,334.068802934961,24.91093291739191,260530,0.6477738589819187,1220.0,3.299999952316284,41.0,876.0,87600.0,354.0,1.2999999523162842,19.931197065038987,4.253790426438627,1175.8254825526112,6.790042920682524
LT_101-102_A1,True,218.0,221.0,2,-21.077606,23.247042,31.379778,21.112011,-22.948869,31.182809,500.0,0.034405,0.298173,6.28,False,79.8390549376447,8.322267532348633,35.2156142699,-115.13791234499999,334.068802934961,24.91093291739191,260530,0.6477738589819187,1220.0,3.299999952316284,41.0,876.0,87600.0,354.0,1.2999999523162842,19.931197065038987,4.253790426438627,1175.8254825526112,6.790042920682524
LT_101-102_A1,True,219.0,220.0,1,78.146568,-8.803934,78.640923,-77.808277,11.510266,78.655033,500.0,0.338291,2.706331,15.73,False,207.35212896955213,10.113096237182615,35.532956375,-115.2128843045,301.01727582000524,49.281334286649994,258141,6.324163197299666,954.0,5.699999809265137,32.0,905.0,90500.0,334.0,0.8999999761581421,32.98272417999476,8.56428833231439,1163.1782011025437,17.82634241021788
LT_101-102_A1,True,219.0,220.0,2,78.146568,-8.803934,78.640923,-77.808277,11.510266,78.655033,500.0,0.338291,2.706331,15.73,False,207.35212896955213,10.113096237182615,35.532956375,-115.2128843045,301.01727582000524,49.281334286649994,258141,6.324163197299666,954.0,5.699999809265137,32.0,905.0,90500.0,334.0,0.8999999761581421,32.98272417999476,8.56428833231439,1163.1782011025437,17.82634241021788
LT_101-102_A1,True,220.0,223.0,1,46.327068,-10.393309,47.478607,-46.253525,10.932627,47.528001,500.0,0.073543,0.539318,9.5,False,125.37217981498353,8.780431747436523,35.73552259805,-115.491516237,337.70442527395744,21.35444911338634,253425,5.089453500966101,1082.0,7.199999809265137,21.0,905.0,90500.0,82.0,0.699999988079071,104.29557472604256,8.306355858718234,1188.0623470165208,10.552659978646739
LT_101-102_A1,True,220.0,223.0,2,46.327068,-10.393309,47.478607,-46.253525,10.932627,47.528001,500.0,0.073543,0.539318,9.5,False,125.37217981498353,8.780431747436523,35.73552259805,-115.491516237,337.70442527395744,21.35444911338634,253425,5.089453500966101,1082.0,7.199999809265137,21.0,905.0,90500.0,82.0,0.699999988079071,104.29557472604256,8.306355858718234,1188.0623470165208,10.552659978646739
LT_101-102_A1,True,221.0,222.0,34,6.96408,-15.548968,17.037277,-6.952413,15.637115,17.113019,500.0,0.011666,0.088147,3.41,False,43.6204666404536,8.103399276733398,35.823651321149995,-115.2440759635,355.81008268792635,113.13137799107704,253425,27.06993274564634,1082.0,7.199999809265137,21.0,905.0,90500.0,82.0,0.699999988079071,86.18991731207365,7.574651146229371,1202.0995319292117,3.6286900944423865
LT_101-102_A1,True,223.0,318.0,1,311.36264,-40.284962,313.957916,-297.298723,152.796299,334.265224,500.0,14.063917,112.511337,62.79,False,828.5801899998486,39.904470443725586,35.6650814384,-116.25650849249999,255.190966299923,134.83363637092583,239061,1.6960774471141216,224.0,8.399999618530273,23.0,987.0,98700.0,112.0,0.5,36.80903370007701,50.08674590017108,1061.673919288217,78.0446966762975
LT_101-102_A1,True,301.0,302.0,C1,14.855904,-37.054317,39.921425,-14.841083,37.123479,39.980126,175.0,0.01482,0.069162,22.81,False,172.79403438890165,9.472055435180664,35.03875954075,-118.843312456,243.44298077505434,4.386662067124732,193839,1.9317872823073838,197.0,6.900000095367432,6.0,997.0,99700.0,329.0,1.0,85.55701922494566,8.221941661316123,1315.1419372435073,13.138812587109195
LT_101-102_A1,True,301.0,303.0,C2,-39.29282,24.077915,46.083313,40.622665,-18.976147,44.836314,175.0,1.329845,5.101768,26.33,False,199.4648630723106,9.957456588745115,35.132562363350004,-118.432657652,74.8245157929639,73.24899856739759,201352,1.1569499647389767,1234.0,1.399999976158142,8.0,876.0,87600.0,306.0,1.100000023841858,51.17548420703611,3.3616283180210758,1301.7711182066732,15.322575549770567
LT_101-102_A1,True,301.0,305.0,C3,-0.80012,7.085783,7.130815,0.815951,-7.024618,7.071848,175.0,0.015831,0.061165,4.07,False,30.864687128049557,8.056707382202148,34.96073353885,-118.666126353,124.16098495024664,34.31766044565577,197187,1.159579646235395,1318.0,0.10000000149011612,7.0,881.0,88100.0,329.0,1.0,24.839015049753357,0.26539631038804146,1180.5489484818738,2.614435188624748
LT_101-102_A1,True,302.0,304.0,C4,-7.014432,22.932995,23.981752,7.24345,-22.051626,23.210811,175.0,0.229017,0.881369,13.7,False,103.60958430884811,8.536272048950195,34.83101416905,-118.714222427,148.04905085666337,52.08829416605541,196510,2.4486343801899135,1006.0,0.8999999761581421,12.0,890.0,89000.0,329.0,1.0,0.9509491433366293,2.1186841727469528,1017.7681307204012,10.180077483415669
LT_101-102_A1,True,302.0,306.0,C5,3.669712,-0.098376,3.671031,-3.659613,0.137157,3.662182,175.0,0.010099,0.038782,2.1,False,15.860142157040697,8.021688461303711,34.95855226255,-118.57052961950001,106.3161668365982,55.94519037768375,198553,1.5187727987860509,1572.0,-3.5,8.0,820.0,82000.0,329.0,1.0,42.6838331634018,-3.376704216003418,1276.2560299250708,1.2427084993260988
LT_101-102_A1,True,303.0,309.0,C6,15.073495,-6.851538,16.55759,-14.982595,7.200476,16.623027,175.0,0.0909,0.348939,9.46,False,74.00626424587769,8.278493881225586,34.976650231700006,-118.08544598200001,188.13452627185995,54.11331791886194,206968,1.4846723558012531,783.0,4.699999809265137,10.0,922.0,92200.0,306.0,1.399999976158142,117.86547372814005,5.015813827760212,1378.9957023831596,5.366678381809398
LT_101-102_A1,True,303.0,324.0,C7,-171.08728,7.266737,171.241531,171.756657,20.847067,173.017194,400.0,0.669376,28.113804,42.81,False,765.3859041717216,35.44053077697754,35.212062175599996,-118.039183389,146.93439430470073,1.454265274314389,208330,1.7152550570184055,708.0,6.300000190734863,10.0,934.0,93400.0,306.0,1.2999999523162842,159.06560569529927,36.195883536782276,1179.372196874502,64.89774018754208
LT_101-102_A1,True,304.0,309.0,C8,-54.683758,15.527437,56.845535,55.685996,-11.666965,56.895063,175.0,1.002238,3.860472,32.48,False,253.3396778416879,11.145181655883787,34.68392469455,-118.345463673,73.75738112970913,41.52056208016359,202769,0.8280799601706181,773.0,4.699999809265137,11.0,931.0,93100.0,351.0,0.800000011920929,97.24261887029087,7.933467486034715,1256.062145424916,20.169358559562756
LT_101-102_A1,True,305.0,310.0,C9,-46.333138,0.182535,46.333496,46.869769,1.870662,46.907085,175.0,0.536631,2.053197,26.48,False,202.00869172220212,10.00706672668457,34.801600393499996,-118.30750604849999,113.32976259868565,40.40249884327066,203469,1.1424100378689062,748.0,5.0,10.0,935.0,93500.0,306.0,1.2999999523162842,12.670237401314353,7.628564834594727,1123.2299475602535,17.98462480109094
LT_101-102_A1,True,306.0,310.0,10,-83.528664,-105.760803,134.767883,84.594116,110.403129,139.086359,175.0,1.065452,4.642326,77.01,False,586.1881405204866,24.4144344329834,34.808241774349995,-118.190362231,138.18711791697945,23.53186086187305,205576,0.9386546028337737,713.0,5.300000190734863,9.0,937.0,93700.0,306.0,1.2999999523162842,167.81288208302055,25.713291915240916,1117.3718756244896,52.46132942024079
LT_101-102_A1,True,307.0,308.0,11,-36.136448,21.97253,42.292259,36.479256,-20.665576,41.926151,175.0,0.342808,1.306955,24.17,False,191.9301229326841,9.81348991394043,34.16299173335,-118.7662179435,56.26178119320775,24.75670932515617,195171,1.4464621072353085,372.0,9.600000381469727,9.0,981.0,98100.0,45.0,2.0,168.73821880679225,11.53544120481456,1190.7173013414426,16.118865722070115
LT_101-102_A1,True,308.0,309.0,1,-78.924194,11.636748,79.777451,82.227577,1.039022,82.234141,175.0,3.303383,12.675771,45.59,False,365.34228836479457,14.492406845092772,34.4802378884,-118.39079997799999,40.21333607696363,74.5767423466253,202071,1.4426397722920923,762.0,6.0,14.0,943.0,94300.0,351.0,0.699999988079071,130.78666392303637,13.460716247558594,1172.0033618997882,31.172460783097403
LT_101-102_A1,True,308.0,310.0,2,-67.181412,-11.977797,68.240814,69.559304,21.102268,72.689769,175.0,2.377892,9.124472,38.99,False,312.5100493200304,12.766752243041992,34.4770168747,-118.37939134349999,41.771399382824995,75.41473787810489,202071,1.436609056439648,762.0,6.0,14.0,943.0,94300.0,351.0,0.699999988079071,129.228600617175,11.497688293457031,1175.321175428181,26.589331993119238
LT_101-102_A1,True,309.0,311.0,14,-99.872177,-8.455883,100.2295,100.100438,18.042838,101.713528,400.0,0.228261,9.586955,25.06,False,446.9520907164941,17.658700942993164,34.7389259,-118.11963760200001,63.413327538162264,1.5744173883172414,206974,2.0006750741101893,711.0,6.300000190734863,10.0,946.0,94600.0,351.0,0.800000011920929,107.58667246183774,16.078436653113386,1233.5919347057065,36.23176174730113
LT_101-102_A1,True,309.0,312.0,15,-135.249023,-2.061068,135.264725,135.664752,19.521648,137.062101,400.0,0.415728,17.460581,33.82,False,603.1842086306091,25.350217819213867,34.7293605034,-118.12361469999999,154.41113041358733,1.577419398220969,206278,1.4537852103916686,706.0,6.0,10.0,948.0,94800.0,351.0,0.800000011920929,16.58886958641267,30.21765899658203,1055.5943022541903,57.14166961137693
LT_101-102_A1,True,310.0,311.0,16,-144.8638,34.359715,148.882874,145.334524,-14.589323,146.064959,400.0,0.470724,19.770391,37.22,False,641.8422332173781,27.569055557250977,34.7357048863,-118.1082289675,334.52631029314165,1.573879005359757,206974,0.9642253309948795,711.0,6.300000190734863,10.0,946.0,94600.0,351.0,0.800000011920929,16.47368970685835,33.56127889406889,1052.3543162347505,60.99107717958
LT_101-102_A1,True,310.0,312.0,17,-181.171585,42.394943,186.065781,181.906792,-11.516253,182.270966,400.0,0.735207,30.878691,46.52,False,802.1397840719785,38.00274848937988,34.726139489699996,-118.11220606549999,243.29540826571312,1.571676799018731,206974,1.1628829141889936,711.0,6.300000190734863,10.0,946.0,94600.0,351.0,0.800000011920929,107.70459173428688,36.43666074301473,1233.4644954987675,65.03144492599463
LT_101-102_A1,True,311.0,313.0,18,-144.459167,-26.333895,146.839783,145.87192,37.635913,150.64886,500.0,1.412752,11.302018,29.37,False,387.1482242938613,15.279359817504885,34.50368100025,-118.065394118,170.8349978934301,53.70230936357421,207669,1.5864932931362066,1163.0,4.599999904632568,17.0,919.0,91900.0,351.0,0.5,0.16500210656988656,19.629982286572158,994.5114808901782,38.92848214756942
LT_101-102_A1,True,311.0,314.0,19,-100.974892,22.880224,103.534698,101.577106,-17.821621,103.128651,500.0,0.602215,5.058603,20.71,False,272.97285289165256,11.646146774291992,34.8435290479,-117.8984061615,59.815032333039426,45.030436553750164,210340,0.7293270345475279,697.0,5.800000190734863,11.0,938.0,93800.0,306.0,1.2999999523162842,66.18496766696057,8.870851705059977,1355.925938036718,20.131840923914872
LT_101-102_A1,True,312.0,313.0,20,-80.876953,-40.713493,90.546509,81.398182,44.883323,92.952551,500.0,0.521229,4.169829,18.11,False,239.0867741581058,10.803747177124023,34.49411560365,-118.069371216,169.66021641891973,51.728822906200705,207669,0.9469890389000564,1163.0,4.599999904632568,17.0,919.0,91900.0,351.0,0.5,1.339783581080269,11.045700361849413,994.5114808901782,24.04062484468268
LT_101-102_A1,True,312.0,323.0,21,-236.696335,32.708492,238.945602,244.368141,29.305271,246.119051,500.0,7.671806,62.013763,47.79,False,630.9324767169835,26.930932998657227,34.4879832208,-117.61655421500001,119.24125114688786,106.0334140418212,215042,0.37812492327164215,1076.0,6.400000095367432,15.0,911.0,91100.0,223.0,0.800000011920929,103.75874885311214,25.65473717889381,1227.578370379008,51.39651299999581
LT_101-102_A1,True,313.0,323.0,22,-227.161713,51.415478,232.9077,233.552767,-0.86805,233.55438,500.0,6.391054,50.547428,46.58,False,599.758667596034,25.15955924987793,34.25913575225,-117.56603806300001,90.68381410399729,83.24113817308535,215722,1.5973050712788772,2210.0,-1.7999999523162842,24.0,774.0,77400.0,223.0,0.6000000238418579,132.3161858960027,20.91054577397381,1151.5403670569958,52.0831648419624
LT_101-102_A1,True,314.0,316.0,23,-225.94278,0.750221,225.944016,228.79215,32.872349,231.1416,500.0,2.84937,33.62257,45.19,False,599.1287029827267,25.124540328979492,35.0416656677,-117.46823389549999,61.27736452675009,44.927729327005714,217731,1.1754647648536851,757.0,4.800000190734863,13.0,927.0,92700.0,242.0,1.100000023841858,0.722635473249909,33.008233048431066,994.8251614701093,60.22452247763421
LT_101-102_A1,True,315.0,316.0,24,-35.76759,34.267406,49.533577,35.822088,-33.804171,49.253872,500.0,0.054498,0.463236,9.91,False,127.95949191242256,8.812532424926758,35.2021686149,-117.31901108699999,139.1505915831454,18.746587950621127,220478,1.894277405563819,1001.0,3.5999999046325684,19.0,898.0,89800.0,242.0,0.8999999761581421,102.8494084168546,4.611846828852322,1276.3747740871343,10.025228836408134
LT_101-102_A1,True,315.0,321.0,1,-137.768829,-59.66515,150.133865,139.16575,71.073331,156.264277,500.0,1.39692,11.408181,30.03,False,387.8390023044013,15.304651260375977,35.50565725275,-117.25089816349998,24.63912469184521,58.68035354688509,221165,1.909962955671058,792.0,6.599999904632568,18.0,932.0,93200.0,12.0,0.5,167.3608753081548,19.70063276804194,981.2449558065101,39.52519704782855
LT_101-102_A1,True,315.0,321.0,2,-137.768829,-59.66515,150.133865,139.16575,71.073331,156.264277,500.0,1.39692,11.408181,30.03,False,387.8390023044013,15.304651260375977,35.50565725275,-117.25089816349998,24.63912469184521,58.68035354688509,221165,1.909962955671058,792.0,6.599999904632568,18.0,932.0,93200.0,12.0,0.5,167.3608753081548,19.70063276804194,981.2449558065101,39.52519704782855
LT_101-102_A1,True,315.0,324.0,26,174.079269,28.126139,176.336807,-171.750657,-10.827873,172.091635,500.0,2.328613,17.298265,35.27,False,455.5287462720271,18.02639961242676,35.2362759736,-117.71062519,263.78864241348344,59.25640398232974,213678,1.7859132718646786,892.0,4.599999904632568,18.0,904.0,90400.0,12.0,0.800000011920929,108.21135758651656,15.078534225721341,1235.457522726617,36.87125926164495
LT_101-102_A1,True,316.0,317.0,27,-187.094299,-78.068054,202.728622,188.402414,89.405051,208.539524,500.0,1.308115,11.336997,40.55,False,526.7043217730669,21.324987411499023,35.25840025645,-117.15370904899999,33.601264589227526,32.0703414274824,223263,1.5292915789926425,958.0,4.0,14.0,907.0,90700.0,257.0,0.8999999761581421,43.398735410772474,18.33382797241211,1219.1211992107142,43.20360618075273
LT_101-102_A1,True,316.0,319.0,28,-79.625893,27.059988,84.098312,79.857326,-25.285662,83.764893,500.0,0.231434,1.774326,16.82,False,218.4937871487124,10.344610214233398,35.0279991523,-117.188004079,154.70724354717186,27.138990967823084,222571,2.112861749248584,640.0,6.099999904632568,11.0,940.0,94000.0,242.0,1.2000000476837158,87.29275645282814,8.089670277419827,1359.835127436097,16.06766752383223
LT_101-102_A1,True,317.0,318.0,29,-164.366653,-43.301338,169.974701,164.949548,47.381599,171.61984,500.0,0.582895,4.080261,33.99,False,429.47784006703625,16.930112838745117,35.44212331835,-117.01620042849999,26.8584961244473,15.879932652806714,225363,0.9337792042101049,1006.0,3.799999952316284,16.0,916.0,91600.0,257.0,0.800000011920929,50.1415038755527,13.613006164544004,1214.0353888167526,35.37605608726303
LT_101-102_A1,True,317.0,322.0,30,-24.036491,-40.822472,47.373276,24.245394,42.389239,48.833254,500.0,0.208902,1.566767,9.47,False,119.69882655289722,8.712339401245117,35.9086959435,-117.27055059599999,341.9673129068019,124.1052965213618,221155,2.268894183696831,816.0,7.099999904632568,11.0,926.0,92600.0,358.0,0.8999999761581421,16.032687093198092,8.25684747741343,1060.3516154070187,11.288597557042483
LT_101-102_A1,True,318.0,321.0,1,44.430237,-34.979485,56.547417,-44.34041,35.757984,56.962315,500.0,0.089827,0.778499,11.31,False,141.53289293914045,8.991518020629883,35.625578804750006,-117.045967096,334.8207162541743,29.440966906351033,224654,2.1245980851639903,744.0,6.5,14.0,950.0,95000.0,257.0,0.800000011920929,102.17928374582573,7.6457719802856445,1238.6694860162027,11.42620323960165
LT_101-102_A1,True,318.0,321.0,2,44.430237,-34.979485,56.547417,-44.34041,35.757984,56.962315,500.0,0.089827,0.778499,11.31,False,141.53289293914045,8.991518020629883,35.625578804750006,-117.045967096,334.8207162541743,29.440966906351033,224654,2.1245980851639903,744.0,6.5,14.0,950.0,95000.0,257.0,0.800000011920929,102.17928374582573,7.6457719802856445,1238.6694860162027,11.42620323960165
LT_101-102_A1,True,319.0,320.0,1,-97.946121,3.059548,97.993889,98.467144,1.108631,98.473384,500.0,0.521022,4.168179,19.6,False,255.73594763239353,11.203546524047852,34.69004841255,-117.0939638955,173.7034075408551,50.917641569310206,223976,0.5349460739898468,1137.0,4.599999904632568,23.0,890.0,89000.0,225.0,1.100000023841858,51.296592459144904,7.896570111602159,1277.6246981096858,20.016515648982725
LT_101-102_A1,True,319.0,320.0,2,-97.946121,3.059548,97.993889,98.467144,1.108631,98.473384,500.0,0.521022,4.168179,19.6,False,255.73594763239353,11.203546524047852,34.69004841255,-117.0939638955,173.7034075408551,50.917641569310206,223976,0.5349460739898468,1137.0,4.599999904632568,23.0,890.0,89000.0,225.0,1.100000023841858,51.296592459144904,7.896570111602159,1277.6246981096858,20.016515648982725
LT_101-102_A1,True,320.0,323.0,1,-139.496429,-1.73873,139.507263,140.123362,6.336235,140.266548,500.0,0.626932,4.597505,27.9,False,362.90525699399075,14.406805038452148,34.35773449745,-117.0883646675,191.09942568688564,23.73400695445522,223984,1.7037065959877034,1551.0,3.0,25.0,842.0,84200.0,225.0,1.0,33.90057431311436,10.536428451538086,1196.0176813992002,30.342800331298967
LT_101-102_A1,True,320.0,323.0,2,-139.496429,-1.73873,139.507263,140.123362,6.336235,140.266548,500.0,0.626932,4.597505,27.9,False,362.90525699399075,14.406805038452148,34.35773449745,-117.0883646675,191.09942568688564,23.73400695445522,223984,1.7037065959877034,1551.0,3.0,25.0,842.0,84200.0,225.0,1.0,33.90057431311436,10.536428451538086,1196.0176813992002,30.342800331298967
LT_101-102_A1,True,321.0,322.0,34,-19.663162,-32.290138,37.805988,19.75262,32.966044,38.430795,500.0,0.089458,0.675905,7.56,False,93.95975539207063,8.442888259887695,36.0921514299,-117.30031726349999,336.7951627128865,83.98330271350771,220456,0.23954791994549104,372.0,10.399999618530273,11.0,974.0,97400.0,358.0,1.0,21.20483728711349,11.083215714588732,1099.8439938605766,8.543007546212195
LT_101-102_A1,True,323.0,325.0,35,-418.168213,160.463821,447.898773,418.168213,-141.264242,441.384459,722.0,0.0,19.199579,62.04,False,1159.407765574684,67.43712425231934,34.252447341449994,-117.12109914749999,265.12388154306666,1.4534200752008906,223288,1.6967119263507657,1700.0,4.199999809265137,26.0,856.0,85600.0,225.0,0.699999988079071,139.87611845693334,75.00542855988715,1139.4748973284181,101.74930297218481
LT_101-103_A2,True,101.0,102.0,A1,3.54316,-32.516186,32.70866,-3.538662,32.537175,32.729037,175.0,0.004498,0.020989,18.69,False,142.3745813609007,9.003190994262695,33.3768908526,-113.8307877345,168.0832196909272,4.366718050928278,272693,66.37854754514882,91.0,11.399999618530273,39.0,1008.0,100800.0,46.0,0.8999999761581421,57.916780309072806,12.812154390685464,1210.9505572743788,11.757258007408577
LT_101-103_A2,True,101.0,105.0,A3,8.214885,-6.440145,10.438382,-8.191926,6.528848,10.475377,175.0,0.022958,0.088703,5.96,False,45.43629324268134,8.111181259155273,33.527831551000006,-113.917332536,332.7077807708397,32.97810897483768,272693,55.37740896846629,91.0,11.399999618530273,39.0,1008.0,100800.0,46.0,0.8999999761581421,73.29221922916031,11.948387146872847,1229.6505437140033,3.6950573864219005
LT_101-103_A2,True,102.0,104.0,A4,11.324706,9.03529,14.487423,-11.238947,-8.705248,14.216022,175.0,0.085759,0.330042,8.28,False,62.96113900273722,8.204565048217773,33.58499098295,-113.82567627200001,0.053868993317280456,50.552094829892674,273508,61.87228040205209,89.0,11.0,39.0,1005.0,100500.0,46.0,0.8999999761581421,45.94613100668272,11.686063766479492,1188.8033143376833,5.296177949992904
LT_101-103_A2,True,102.0,106.0,A5,8.885533,-9.805295,13.232404,-8.813426,10.082189,13.391303,175.0,0.072108,0.276894,7.56,False,57.50693049994993,8.171491622924805,33.54785744425,-114.003928834,322.14286051780334,53.63905217588826,272693,47.56965144659038,91.0,11.399999618530273,39.0,1008.0,100800.0,46.0,0.8999999761581421,83.85713948219666,11.99025573824838,1243.6007387549291,4.624227753155313
LT_101-103_A2,True,103.0,109.0,A6,-53.175056,3.965081,53.322685,54.19656,-0.043824,54.196578,175.0,1.021504,3.921257,30.47,False,239.61548952217805,10.815420150756836,33.72863454765,-114.48934004450001,38.03489934721705,54.229833774295344,273508,0.9566740748851706,89.0,11.0,39.0,1005.0,100500.0,46.0,0.8999999761581421,7.965100652782951,15.941938400268555,982.1313162479078,24.39750016704434
LT_101-103_A2,True,103.0,124.0,A7,-27.228207,-20.492359,34.07803,27.255002,21.617776,34.787403,400.0,0.026796,1.125417,8.52,False,153.1360215713344,9.158830642700195,33.53989894155,-114.6634437025,62.122581397062504,1.4584863725043906,270245,1.1363138040058882,75.0,11.0,34.0,1008.0,100800.0,46.0,1.2000000476837158,163.8774186029375,12.832086563110352,1101.3763374781431,13.904059526280989
LT_101-103_A2,True,104.0,109.0,A8,-21.815731,5.098128,22.403503,21.971854,-4.496767,22.427288,175.0,0.156123,0.601361,12.8,False,99.19928199249937,8.492498397827148,33.8663698982,-114.066850007,285.22792751338363,46.175372092212655,277498,39.42199663193729,151.0,10.899999618530273,56.0,995.0,99500.0,59.0,0.6000000238418579,133.77207248661637,12.295959665618284,1100.9855773740946,9.0100437309174
LT_101-103_A2,True,105.0,110.0,A9,-23.522694,-10.65123,25.821812,23.682125,11.261228,26.223239,175.0,0.159431,0.609998,14.76,False,112.05782265512758,8.625764846801758,33.786176454599996,-114.14599382399999,316.1102545640957,39.125724159032,273508,31.981051974502726,89.0,11.0,39.0,1005.0,100500.0,46.0,0.8999999761581421,89.88974543590427,11.978723526000977,1258.1169733884544,8.90678887777224
LT_101-103_A2,True,106.0,110.0,10,-51.935707,-112.400261,123.818954,52.33692,114.148404,125.574725,175.0,0.401213,1.748144,70.75,False,532.3697237846477,21.606111526489254,33.82541475805,-114.23744436449999,332.2035219612036,21.973081610449327,273508,25.547898565618038,89.0,11.0,39.0,1005.0,100500.0,46.0,0.8999999761581421,73.79647803879641,23.968656539916992,1233.1633021421167,43.17106443727876
LT_101-103_A2,True,107.0,108.0,11,77.369171,1.346589,77.38089,-76.336723,2.589621,76.380635,175.0,1.032449,3.93621,44.22,False,335.9965902144877,13.50214958190918,34.57823637615,-113.7314761945,191.80450991680215,27.040331428742554,280694,48.23352083597048,170.0,11.399999618530273,52.0,996.0,99600.0,71.0,0.8999999761581421,59.19549008319785,17.24021302203255,1208.6474477943143,27.79938772283471
LT_101-103_A2,True,107.0,203.0,B1,149.035446,-1.492742,149.042923,-138.986604,40.013304,144.631741,175.0,10.048842,38.520561,85.17,False,647.1612554934487,27.88325309753418,35.0258321095,-113.838621218,341.18656177700467,77.23111035384919,273483,67.12170109617558,151.0,10.100000381469727,43.0,991.0,99100.0,71.0,1.2000000476837158,89.81343822299533,26.031317304074037,1340.5309799813035,48.27648634442411
LT_101-103_A2,True,108.0,109.0,1,1.392435,1.118992,1.786342,-1.386784,-1.097309,1.768405,175.0,0.005651,0.021683,1.02,False,7.862213193937363,8.012933731079102,34.18982353435,-114.034962272,220.15903880363092,78.21129921512714,280694,14.468759995973627,170.0,11.399999618530273,52.0,996.0,99600.0,71.0,0.8999999761581421,30.84096119636908,12.134975434524677,1125.1468742172656,0.6987721669143767
LT_101-103_A2,True,108.0,110.0,2,-1.438813,-17.78544,17.843544,1.557886,18.242346,18.308746,175.0,0.119072,0.456905,10.2,False,78.5346518546851,8.312540054321289,34.1860019329,-114.0273040675,218.96149073017423,77.97500234740549,280694,15.230903469254052,170.0,11.399999618530273,52.0,996.0,99600.0,71.0,0.8999999761581421,32.03850926982577,12.455361177224404,1130.850761954863,6.94474058795565
LT_101-103_A2,True,109.0,111.0,14,-62.188053,-0.419699,62.189472,62.274769,4.061744,62.407087,400.0,0.086715,3.642045,15.55,False,275.4820671622478,11.713266372680664,33.91241117325,-114.304699342,159.67425780531744,1.9031858797390406,273502,18.441799885429408,97.0,10.699999809265137,44.0,998.0,99800.0,59.0,0.5,79.32574219468256,15.60432434472932,1111.4303798546346,24.786263913199715
LT_101-103_A2,True,109.0,112.0,15,-90.763428,-0.670267,90.7659,90.948145,8.428398,91.337851,400.0,0.184717,7.758131,22.69,False,402.0676966005093,15.842580795288086,33.9156511436,-114.31084169450001,203.947168667828,1.1643839227143522,273502,17.80785802409589,97.0,10.699999809265137,44.0,998.0,99800.0,59.0,0.5,35.05283133217199,21.826358041094863,1038.1181103063589,38.73043853187911
LT_101-103_A2,True,110.0,111.0,16,-67.536224,39.615479,78.297684,67.664265,-34.237778,75.833226,400.0,0.12804,5.3777,19.57,False,334.74871049813373,13.461294174194336,33.9085895718,-114.2970411375,218.83185834528146,1.199999298332487,273502,19.225322946508676,97.0,10.699999809265137,44.0,998.0,99800.0,59.0,0.5,20.16814165471854,19.885623939206198,972.5705458947739,34.41896445570042
LT_101-103_A2,True,110.0,112.0,17,-97.144249,39.464825,104.854561,97.373877,-29.820466,101.837773,400.0,0.229628,9.644359,26.21,False,448.28821609331254,17.716093063354492,33.91182954215,-114.30318349000001,263.52385649728956,1.8981503306103409,273502,18.59008452775047,97.0,10.699999809265137,44.0,998.0,99800.0,59.0,0.5,155.47614350271044,25.560856258793137,994.5498949120797,45.074482274510935
LT_101-103_A2,True,111.0,113.0,18,-244.241425,38.306118,247.227097,248.348402,-5.450302,248.408201,500.0,4.106977,32.855816,49.45,False,654.7970786840316,28.338499069213867,34.1293332045,-114.287887337,2.7798809616962217,50.08528154115857,277498,4.623035951639475,151.0,10.899999618530273,56.0,995.0,99500.0,59.0,0.6000000238418579,56.22011903830378,34.40968154843358,1119.8532480993504,58.47168633884605
LT_101-103_A2,True,111.0,114.0,19,114.302406,-8.130082,114.591179,-113.574193,14.247078,114.464302,500.0,0.728214,6.116996,22.92,False,303.5022057155772,12.49924659729004,33.84073608285,-114.56051449450001,253.6860893720658,49.96150226236739,271871,2.0077707949584878,269.0,10.199999809265137,55.0,994.0,99400.0,59.0,0.699999988079071,165.3139106279342,17.82410374294159,993.5335673437644,30.547755575787697
LT_101-103_A2,True,112.0,113.0,20,-196.031418,31.523245,198.54982,198.670271,-10.41242,198.942944,500.0,2.638853,21.110825,39.71,False,524.4078200118335,21.212148666381836,34.132573174849995,-114.29402968950001,4.126021058856338,49.43428786192113,277498,4.172118022807155,151.0,10.899999618530273,56.0,995.0,99500.0,59.0,0.6000000238418579,54.87397894114366,26.545606065916218,1117.8071584882323,46.9139793952531
LT_101-103_A2,True,112.0,123.0,21,7.709397,-10.131177,12.73089,-7.701378,10.195997,12.777699,500.0,0.008019,0.06482,2.55,False,33.62470070086415,8.065462112426758,34.14643314265,-114.691095425,307.21393123188295,87.0443510046333,269416,1.9810322366643094,324.0,8.899999618530273,53.0,976.0,97600.0,346.0,1.2999999523162842,38.78606876811705,9.546105385848932,1267.499283488054,2.6528378468453044
LT_101-103_A2,True,113.0,123.0,22,118.233849,-16.777033,119.418213,-116.521068,30.323571,120.402152,500.0,1.712781,13.546538,23.88,False,315.54296302834814,12.859163284301758,34.3681403032,-114.6717226875,272.6456124243665,72.95310639099516,270224,1.0590202066430323,388.0,8.899999618530273,43.0,971.0,97100.0,71.0,1.2000000476837158,158.3543875756335,14.794047746447177,1149.3614206940665,27.453763224260715
LT_101-103_A2,True,113.0,215.0,B2,319.610748,-19.287895,320.19223,-308.275694,104.300804,325.442101,500.0,11.335054,85.012909,64.04,False,846.055241111792,41.18849754333496,34.7514356122,-114.425215633,342.78515118710203,92.50852375989442,273483,7.038480495579008,151.0,10.100000381469727,43.0,991.0,99100.0,71.0,1.2000000476837158,88.21484881289797,36.775129848025244,1336.7947023136414,63.28984096417288
LT_101-103_A2,True,114.0,116.0,23,26.917356,-23.7864,35.921261,-26.854107,24.532749,36.373051,500.0,0.06325,0.746349,7.18,False,95.4225430068282,8.456506729125977,33.71905866655,-115.07048464,254.58110202453383,48.11325865555416,262163,1.5254500733407452,387.0,9.100000381469727,50.0,990.0,99000.0,7.0,2.0,112.41889797546617,9.781409644001542,1487.8570198426282,6.413421567680012
LT_101-103_A2,True,115.0,116.0,24,-103.745522,42.016766,111.930969,104.019569,-39.687361,111.333541,500.0,0.274048,2.329404,22.39,False,292.1803785873037,12.172403335571287,33.5836074796,-115.325283222,2.6007230139453554,17.236067799848346,256615,1.991195585655014,994.0,4.800000190734863,47.0,910.0,91000.0,14.0,1.600000023841858,11.399276986054645,10.337821383936898,1151.5740507594417,25.37226141858756
LT_101-103_A2,True,115.0,121.0,1,-1.593843,-8.0767,8.232462,1.594721,8.083867,8.239662,500.0,0.000878,0.007166,1.65,False,21.489708213511413,8.032388687133789,33.5166525943,-115.700143213,272.1450146356158,68.75953430638423,249642,1.4759306061184725,343.0,9.899999618530273,41.0,989.0,98900.0,14.0,1.399999976158142,101.85498536438422,10.30254154269278,1369.8872302838884,1.5687209675688412
LT_101-103_A2,True,115.0,121.0,2,-1.593843,-8.0767,8.232462,1.594721,8.083867,8.239662,500.0,0.000878,0.007166,1.65,False,21.489708213511413,8.032388687133789,33.5166525943,-115.700143213,272.1450146356158,68.75953430638423,249642,1.4759306061184725,343.0,9.899999618530273,41.0,989.0,98900.0,14.0,1.399999976158142,101.85498536438422,10.30254154269278,1369.8872302838884,1.5687209675688412
LT_101-103_A2,True,115.0,124.0,26,27.334171,12.243359,29.950905,-27.255003,-11.655249,29.642537,500.0,0.079169,0.588109,5.99,False,78.18271243530793,8.309621810913086,33.524574389449995,-114.9929983545,86.0634407392426,62.52120431249092,263770,1.2987773397332119,181.0,9.0,49.0,991.0,99100.0,7.0,2.0999999046325684,100.9365592607574,9.552064895629883,1525.7012215159837,5.124378963112004
LT_101-103_A2,True,116.0,117.0,27,29.52384,-18.911118,35.061195,-29.486424,19.235391,35.205816,500.0,0.037416,0.324273,7.01,False,92.03643377970867,8.425378799438477,33.6181318947,-115.48093336950001,252.22842579087137,31.107139968025567,253477,1.9140400448987045,626.0,7.900000095367432,42.0,957.0,95700.0,14.0,1.399999976158142,121.77157420912863,8.647604274455261,1350.8931590506336,6.813006133245139
LT_101-103_A2,True,116.0,119.0,28,-89.357811,36.29089,96.446083,89.668475,-33.909135,95.865869,500.0,0.310664,2.381754,19.29,False,253.17315999474025,11.140317916870115,33.76505507735,-115.3450942825,349.13986505303745,23.556813083232125,256610,0.7090697519730219,173.0,9.800000190734863,33.0,999.0,99900.0,347.0,1.5,177.86013494696255,14.665043445538686,1029.0886267547437,24.601686717025338
...